<?xml version="1.0" encoding="utf-8"?>
<networkChangeEvents xmlns="http://www.matsim.org/files/dtd" xmlns:xsi="http://www.w3.org/2001/XMLSchema-instance" xsi:schemaLocation="http://www.matsim.org/files/dtd http://www.matsim.org/files/dtd/networkChangeEvents.xsd">
	<networkChangeEvent startTime="18:00:00">
			<link refId="63986"/>
			<link refId="139998"/>
			<link refId="139997"/>
			<link refId="140036"/>
			<link refId="100597"/>
			<link refId="139989"/>
			<link refId="139990"/>
			<link refId="139992"/>
			<link refId="139991"/>
			<link refId="139993"/>
			<link refId="139994"/>
			<link refId="139996"/>
			<link refId="139995"/>
			<link refId="140000"/>
			<link refId="139999"/>
			<link refId="140001"/>
			<link refId="140002"/>
			<link refId="63971"/>
			<link refId="140003"/>
			<link refId="63972"/>
			<link refId="63985"/>
			<link refId="107151"/>
			<link refId="139988"/>
			<link refId="139987"/>
			<link refId="45942"/>
			<link refId="139985"/>
			<link refId="45939"/>
			<link refId="139986"/>
			<link refId="45940"/>
			<link refId="45941"/>
			<link refId="139984"/>
			<link refId="140037"/>
			<link refId="107148"/>
			<link refId="107150"/>
			<link refId="107149"/>
			<link refId="100596"/>
			<flowCapacity type="absolute" value="0.0"/>
	</networkChangeEvent>
	<networkChangeEvent startTime="18:09:00">
			<link refId="64078"/>
			<link refId="63987"/>
			<link refId="64134"/>
			<link refId="64133"/>
			<link refId="75288"/>
			<link refId="68915"/>
			<link refId="68914"/>
			<link refId="64077"/>
			<link refId="137800"/>
			<link refId="65707"/>
			<link refId="65708"/>
			<link refId="74841"/>
			<link refId="74843"/>
			<link refId="74842"/>
			<link refId="74844"/>
			<link refId="75289"/>
			<link refId="64043"/>
			<link refId="137801"/>
			<link refId="64044"/>
			<link refId="63988"/>
			<link refId="17217"/>
			<link refId="17218"/>
			<flowCapacity type="absolute" value="0.0"/>
	</networkChangeEvent>
	<networkChangeEvent startTime="18:18:00">
			<link refId="11327"/>
			<link refId="11282"/>
			<link refId="120155"/>
			<link refId="125190"/>
			<link refId="125191"/>
			<link refId="11342"/>
			<link refId="11118"/>
			<link refId="125192"/>
			<link refId="81451"/>
			<link refId="64107"/>
			<link refId="45938"/>
			<link refId="81460"/>
			<link refId="17933"/>
			<link refId="45937"/>
			<link refId="64108"/>
			<link refId="64109"/>
			<link refId="11343"/>
			<link refId="120154"/>
			<link refId="120153"/>
			<link refId="67597"/>
			<link refId="70129"/>
			<link refId="120146"/>
			<link refId="64110"/>
			<link refId="125184"/>
			<link refId="67582"/>
			<link refId="67584"/>
			<link refId="125185"/>
			<link refId="67583"/>
			<link refId="125188"/>
			<link refId="125189"/>
			<link refId="68916"/>
			<link refId="67599"/>
			<link refId="68913"/>
			<link refId="67206"/>
			<link refId="125164"/>
			<link refId="68917"/>
			<link refId="67585"/>
			<link refId="125166"/>
			<link refId="84939"/>
			<link refId="67598"/>
			<link refId="84938"/>
			<link refId="125165"/>
			<link refId="67321"/>
			<link refId="67320"/>
			<link refId="125187"/>
			<link refId="125186"/>
			<link refId="66357"/>
			<link refId="66358"/>
			<link refId="10449"/>
			<link refId="10448"/>
			<link refId="81453"/>
			<link refId="81452"/>
			<link refId="10450"/>
			<link refId="81458"/>
			<link refId="81459"/>
			<link refId="17649"/>
			<link refId="17932"/>
			<link refId="17632"/>
			<link refId="17633"/>
			<link refId="17634"/>
			<link refId="17635"/>
			<link refId="17636"/>
			<link refId="17637"/>
			<link refId="17638"/>
			<link refId="17640"/>
			<link refId="17639"/>
			<link refId="17642"/>
			<link refId="17641"/>
			<link refId="17644"/>
			<link refId="17643"/>
			<link refId="17646"/>
			<link refId="17645"/>
			<link refId="17647"/>
			<link refId="17648"/>
			<link refId="54729"/>
			<link refId="81454"/>
			<link refId="81455"/>
			<link refId="54732"/>
			<link refId="54730"/>
			<link refId="54731"/>
			<link refId="66310"/>
			<link refId="10447"/>
			<link refId="66309"/>
			<link refId="120149"/>
			<link refId="120150"/>
			<link refId="81457"/>
			<link refId="81456"/>
			<link refId="11281"/>
			<link refId="11328"/>
			<link refId="11117"/>
			<link refId="136331"/>
			<link refId="120151"/>
			<link refId="120152"/>
			<link refId="120147"/>
			<link refId="120148"/>
			<link refId="70130"/>
			<link refId="136318"/>
			<link refId="136320"/>
			<link refId="136319"/>
			<link refId="136322"/>
			<link refId="136321"/>
			<link refId="136323"/>
			<link refId="136324"/>
			<link refId="136325"/>
			<link refId="136326"/>
			<link refId="136328"/>
			<link refId="136327"/>
			<link refId="136330"/>
			<link refId="136329"/>
			<flowCapacity type="absolute" value="0.0"/>
	</networkChangeEvent>
	<networkChangeEvent startTime="18:27:00">
			<link refId="61457"/>
			<link refId="61458"/>
			<link refId="143418"/>
			<link refId="61492"/>
			<link refId="61491"/>
			<link refId="61460"/>
			<link refId="61459"/>
			<link refId="61468"/>
			<link refId="61467"/>
			<link refId="6673"/>
			<link refId="61493"/>
			<link refId="6674"/>
			<link refId="143413"/>
			<link refId="143412"/>
			<link refId="138956"/>
			<link refId="138957"/>
			<link refId="138974"/>
			<link refId="138953"/>
			<link refId="138954"/>
			<link refId="138955"/>
			<link refId="138958"/>
			<link refId="61490"/>
			<link refId="138961"/>
			<link refId="138965"/>
			<link refId="138964"/>
			<link refId="138969"/>
			<link refId="138968"/>
			<link refId="138970"/>
			<link refId="138971"/>
			<link refId="138972"/>
			<link refId="138973"/>
			<link refId="124609"/>
			<link refId="123801"/>
			<link refId="124583"/>
			<link refId="123802"/>
			<link refId="124575"/>
			<link refId="124576"/>
			<link refId="124582"/>
			<link refId="124581"/>
			<link refId="124605"/>
			<link refId="124606"/>
			<link refId="137707"/>
			<link refId="137797"/>
			<link refId="137708"/>
			<link refId="137798"/>
			<link refId="80038"/>
			<link refId="82720"/>
			<link refId="124574"/>
			<link refId="124573"/>
			<link refId="124570"/>
			<link refId="124569"/>
			<link refId="124598"/>
			<link refId="124602"/>
			<link refId="124601"/>
			<link refId="124591"/>
			<link refId="124612"/>
			<link refId="60355"/>
			<link refId="124566"/>
			<link refId="124568"/>
			<link refId="124567"/>
			<link refId="124571"/>
			<link refId="124572"/>
			<link refId="124577"/>
			<link refId="124578"/>
			<link refId="124579"/>
			<link refId="124580"/>
			<link refId="124588"/>
			<link refId="124590"/>
			<link refId="124589"/>
			<link refId="124600"/>
			<link refId="124599"/>
			<link refId="124604"/>
			<link refId="124603"/>
			<link refId="124608"/>
			<link refId="124607"/>
			<link refId="124613"/>
			<link refId="82722"/>
			<link refId="82721"/>
			<link refId="82724"/>
			<link refId="82723"/>
			<link refId="82731"/>
			<link refId="72286"/>
			<link refId="72287"/>
			<link refId="131036"/>
			<link refId="131037"/>
			<link refId="69413"/>
			<link refId="64113"/>
			<link refId="69418"/>
			<link refId="64112"/>
			<link refId="69376"/>
			<link refId="64115"/>
			<link refId="64114"/>
			<link refId="69416"/>
			<link refId="69417"/>
			<link refId="69379"/>
			<link refId="69335"/>
			<link refId="69414"/>
			<link refId="70128"/>
			<link refId="69415"/>
			<link refId="69377"/>
			<link refId="70126"/>
			<link refId="69378"/>
			<link refId="70127"/>
			<link refId="70125"/>
			<link refId="70124"/>
			<link refId="120145"/>
			<link refId="69336"/>
			<link refId="120139"/>
			<link refId="120140"/>
			<link refId="137796"/>
			<link refId="137799"/>
			<link refId="64111"/>
			<link refId="70073"/>
			<link refId="70123"/>
			<link refId="70122"/>
			<link refId="26828"/>
			<link refId="136312"/>
			<link refId="70121"/>
			<link refId="137760"/>
			<link refId="70072"/>
			<link refId="70557"/>
			<link refId="60358"/>
			<link refId="60356"/>
			<link refId="60357"/>
			<link refId="80039"/>
			<link refId="80040"/>
			<link refId="61463"/>
			<link refId="61464"/>
			<link refId="61466"/>
			<link refId="61465"/>
			<link refId="82729"/>
			<link refId="82730"/>
			<link refId="138966"/>
			<link refId="138967"/>
			<link refId="138962"/>
			<link refId="138963"/>
			<link refId="143411"/>
			<link refId="143410"/>
			<link refId="143416"/>
			<link refId="143417"/>
			<link refId="143414"/>
			<link refId="143415"/>
			<link refId="10913"/>
			<link refId="10914"/>
			<link refId="134663"/>
			<link refId="143409"/>
			<link refId="61469"/>
			<link refId="61461"/>
			<link refId="61462"/>
			<link refId="134662"/>
			<link refId="82727"/>
			<link refId="82728"/>
			<link refId="82725"/>
			<link refId="82726"/>
			<link refId="120142"/>
			<link refId="120141"/>
			<link refId="120138"/>
			<link refId="64117"/>
			<link refId="64116"/>
			<link refId="120144"/>
			<link refId="120143"/>
			<link refId="64118"/>
			<link refId="61456"/>
			<link refId="81077"/>
			<link refId="81076"/>
			<link refId="81075"/>
			<link refId="81073"/>
			<link refId="81074"/>
			<link refId="81072"/>
			<link refId="81071"/>
			<link refId="81069"/>
			<link refId="81070"/>
			<link refId="81067"/>
			<link refId="81068"/>
			<link refId="81066"/>
			<link refId="136313"/>
			<link refId="136316"/>
			<link refId="136317"/>
			<flowCapacity type="absolute" value="0.0"/>
	</networkChangeEvent>
	<networkChangeEvent startTime="18:36:00">
			<link refId="61488"/>
			<link refId="134660"/>
			<link refId="61489"/>
			<link refId="123799"/>
			<link refId="124610"/>
			<link refId="124558"/>
			<link refId="124557"/>
			<link refId="123800"/>
			<link refId="124584"/>
			<link refId="72289"/>
			<link refId="21952"/>
			<link refId="125422"/>
			<link refId="140733"/>
			<link refId="140732"/>
			<link refId="124585"/>
			<link refId="124586"/>
			<link refId="124563"/>
			<link refId="124564"/>
			<link refId="124560"/>
			<link refId="124559"/>
			<link refId="84096"/>
			<link refId="124611"/>
			<link refId="124556"/>
			<link refId="124561"/>
			<link refId="124562"/>
			<link refId="124565"/>
			<link refId="124587"/>
			<link refId="124615"/>
			<link refId="124614"/>
			<link refId="82732"/>
			<link refId="80042"/>
			<link refId="72291"/>
			<link refId="80092"/>
			<link refId="125976"/>
			<link refId="84097"/>
			<link refId="72288"/>
			<link refId="124543"/>
			<link refId="80041"/>
			<link refId="80090"/>
			<link refId="21945"/>
			<link refId="72290"/>
			<link refId="72285"/>
			<link refId="21953"/>
			<link refId="80091"/>
			<link refId="35095"/>
			<link refId="35094"/>
			<link refId="35093"/>
			<link refId="35092"/>
			<link refId="82733"/>
			<link refId="134661"/>
			<link refId="81081"/>
			<link refId="81079"/>
			<link refId="81080"/>
			<link refId="81078"/>
			<link refId="81065"/>
			<link refId="81064"/>
			<link refId="125977"/>
			<link refId="124544"/>
			<link refId="124545"/>
			<link refId="127050"/>
			<flowCapacity type="absolute" value="0.0"/>
	</networkChangeEvent>
	<networkChangeEvent startTime="18:45:00">
			<link refId="94364"/>
			<link refId="91418"/>
			<link refId="91415"/>
			<link refId="76887"/>
			<link refId="76886"/>
			<link refId="91414"/>
			<link refId="98771"/>
			<link refId="98772"/>
			<link refId="98768"/>
			<link refId="98767"/>
			<link refId="91417"/>
			<link refId="91416"/>
			<link refId="94369"/>
			<link refId="94370"/>
			<link refId="94368"/>
			<link refId="94367"/>
			<link refId="94371"/>
			<link refId="98773"/>
			<link refId="91413"/>
			<link refId="35091"/>
			<link refId="35090"/>
			<link refId="98766"/>
			<link refId="98678"/>
			<link refId="94365"/>
			<link refId="98679"/>
			<link refId="94366"/>
			<link refId="98770"/>
			<link refId="98769"/>
			<flowCapacity type="absolute" value="0.0"/>
	</networkChangeEvent>
	<networkChangeEvent startTime="18:54:00">
			<link refId="114182"/>
			<link refId="22560"/>
			<link refId="83989"/>
			<link refId="22417"/>
			<link refId="83988"/>
			<link refId="83987"/>
			<link refId="22416"/>
			<link refId="22561"/>
			<link refId="114522"/>
			<link refId="91419"/>
			<link refId="88854"/>
			<link refId="88853"/>
			<link refId="88855"/>
			<link refId="52534"/>
			<link refId="52533"/>
			<link refId="52531"/>
			<link refId="52532"/>
			<link refId="52530"/>
			<link refId="52529"/>
			<link refId="52528"/>
			<link refId="52527"/>
			<link refId="52526"/>
			<link refId="52535"/>
			<link refId="83986"/>
			<link refId="83985"/>
			<link refId="91423"/>
			<link refId="83981"/>
			<link refId="83982"/>
			<link refId="114179"/>
			<link refId="114180"/>
			<link refId="114181"/>
			<link refId="91498"/>
			<link refId="91420"/>
			<link refId="91497"/>
			<link refId="88852"/>
			<link refId="83983"/>
			<link refId="83984"/>
			<link refId="83980"/>
			<link refId="46479"/>
			<link refId="46480"/>
			<link refId="114521"/>
			<link refId="122525"/>
			<link refId="96436"/>
			<link refId="96437"/>
			<link refId="122524"/>
			<link refId="98676"/>
			<link refId="98765"/>
			<link refId="98764"/>
			<link refId="98677"/>
			<flowCapacity type="absolute" value="0.0"/>
	</networkChangeEvent>
	<networkChangeEvent startTime="19:03:00">
			<link refId="76816"/>
			<link refId="76817"/>
			<link refId="140905"/>
			<link refId="140904"/>
			<link refId="96439"/>
			<link refId="140902"/>
			<link refId="140903"/>
			<link refId="96438"/>
			<link refId="140891"/>
			<link refId="140892"/>
			<link refId="140893"/>
			<link refId="140894"/>
			<link refId="140895"/>
			<link refId="140897"/>
			<link refId="140896"/>
			<link refId="140898"/>
			<link refId="140899"/>
			<link refId="140901"/>
			<link refId="140900"/>
			<link refId="140906"/>
			<flowCapacity type="absolute" value="0.0"/>
	</networkChangeEvent>
	<networkChangeEvent startTime="19:12:00">
			<link refId="67751"/>
			<link refId="67601"/>
			<link refId="132495"/>
			<link refId="67600"/>
			<link refId="132496"/>
			<link refId="67752"/>
			<flowCapacity type="absolute" value="0.0"/>
	</networkChangeEvent>
	<networkChangeEvent startTime="19:21:00">
			<link refId="96456"/>
			<link refId="96457"/>
			<link refId="67753"/>
			<link refId="67754"/>
			<flowCapacity type="absolute" value="0.0"/>
	</networkChangeEvent>
	<networkChangeEvent startTime="19:30:00">
			<link refId="143135"/>
			<link refId="143137"/>
			<link refId="143136"/>
			<link refId="143138"/>
			<link refId="143139"/>
			<link refId="143140"/>
			<link refId="143141"/>
			<link refId="143143"/>
			<link refId="143142"/>
			<link refId="143144"/>
			<link refId="143145"/>
			<link refId="143147"/>
			<link refId="143146"/>
			<link refId="143149"/>
			<link refId="143148"/>
			<link refId="143151"/>
			<link refId="143150"/>
			<link refId="143153"/>
			<link refId="143152"/>
			<link refId="143154"/>
			<link refId="143155"/>
			<link refId="143157"/>
			<link refId="143156"/>
			<link refId="143158"/>
			<link refId="19569"/>
			<link refId="19568"/>
			<flowCapacity type="absolute" value="0.0"/>
	</networkChangeEvent>
	<networkChangeEvent startTime="19:39:00">
			<link refId="57161"/>
			<link refId="57162"/>
			<link refId="42503"/>
			<link refId="3297"/>
			<link refId="130558"/>
			<link refId="28493"/>
			<link refId="54663"/>
			<link refId="72782"/>
			<link refId="72781"/>
			<link refId="92354"/>
			<link refId="92353"/>
			<link refId="130588"/>
			<link refId="57163"/>
			<link refId="92355"/>
			<link refId="57142"/>
			<link refId="130589"/>
			<link refId="42669"/>
			<link refId="42668"/>
			<link refId="42462"/>
			<link refId="57143"/>
			<link refId="42468"/>
			<link refId="105195"/>
			<link refId="42667"/>
			<link refId="143475"/>
			<link refId="143476"/>
			<link refId="54664"/>
			<link refId="143089"/>
			<link refId="143091"/>
			<link refId="143090"/>
			<link refId="143093"/>
			<link refId="143092"/>
			<link refId="143094"/>
			<link refId="143095"/>
			<link refId="143096"/>
			<link refId="143097"/>
			<link refId="143099"/>
			<link refId="143098"/>
			<link refId="143100"/>
			<link refId="143101"/>
			<link refId="143103"/>
			<link refId="143102"/>
			<link refId="143104"/>
			<link refId="143105"/>
			<link refId="143107"/>
			<link refId="143106"/>
			<link refId="143109"/>
			<link refId="143108"/>
			<link refId="143110"/>
			<link refId="143111"/>
			<link refId="143112"/>
			<link refId="143113"/>
			<link refId="143114"/>
			<link refId="143115"/>
			<link refId="143116"/>
			<link refId="143117"/>
			<link refId="143119"/>
			<link refId="143118"/>
			<link refId="143120"/>
			<link refId="143133"/>
			<link refId="143134"/>
			<link refId="42511"/>
			<link refId="42510"/>
			<link refId="23849"/>
			<link refId="23850"/>
			<link refId="57160"/>
			<link refId="42514"/>
			<link refId="42512"/>
			<link refId="42513"/>
			<link refId="42508"/>
			<link refId="42509"/>
			<link refId="56944"/>
			<link refId="42507"/>
			<link refId="42506"/>
			<link refId="42504"/>
			<link refId="42505"/>
			<link refId="56945"/>
			<link refId="82981"/>
			<link refId="82982"/>
			<link refId="130563"/>
			<link refId="130564"/>
			<link refId="130561"/>
			<link refId="130562"/>
			<link refId="130560"/>
			<link refId="130559"/>
			<link refId="130565"/>
			<link refId="92352"/>
			<link refId="38718"/>
			<link refId="38719"/>
			<link refId="105194"/>
			<link refId="42673"/>
			<link refId="42672"/>
			<link refId="42677"/>
			<link refId="42676"/>
			<link refId="42679"/>
			<link refId="42678"/>
			<link refId="42681"/>
			<link refId="42680"/>
			<link refId="42682"/>
			<link refId="42683"/>
			<link refId="42688"/>
			<link refId="72783"/>
			<link refId="3296"/>
			<link refId="42461"/>
			<link refId="28491"/>
			<link refId="143208"/>
			<link refId="28492"/>
			<link refId="28490"/>
			<link refId="143209"/>
			<link refId="143210"/>
			<link refId="143211"/>
			<link refId="26571"/>
			<link refId="26570"/>
			<link refId="26569"/>
			<link refId="42685"/>
			<link refId="42684"/>
			<link refId="42467"/>
			<link refId="26574"/>
			<link refId="26575"/>
			<link refId="26573"/>
			<link refId="26572"/>
			<link refId="26618"/>
			<link refId="26858"/>
			<link refId="42675"/>
			<link refId="42674"/>
			<link refId="26616"/>
			<link refId="26617"/>
			<link refId="26576"/>
			<link refId="42670"/>
			<link refId="42671"/>
			<link refId="26615"/>
			<link refId="42686"/>
			<link refId="42687"/>
			<link refId="26859"/>
			<link refId="72780"/>
			<link refId="19570"/>
			<link refId="19574"/>
			<link refId="19573"/>
			<link refId="19572"/>
			<link refId="19571"/>
			<link refId="19575"/>
			<flowCapacity type="absolute" value="0.0"/>
	</networkChangeEvent>
	<networkChangeEvent startTime="19:48:00">
			<link refId="28497"/>
			<link refId="92348"/>
			<link refId="92350"/>
			<link refId="92349"/>
			<link refId="70795"/>
			<link refId="70796"/>
			<link refId="143087"/>
			<link refId="143088"/>
			<link refId="661"/>
			<link refId="662"/>
			<link refId="26805"/>
			<link refId="26804"/>
			<link refId="92351"/>
			<link refId="28496"/>
			<link refId="72778"/>
			<link refId="26850"/>
			<link refId="26849"/>
			<link refId="26845"/>
			<link refId="26846"/>
			<link refId="26853"/>
			<link refId="26854"/>
			<link refId="26847"/>
			<link refId="26848"/>
			<link refId="26803"/>
			<link refId="26851"/>
			<link refId="26852"/>
			<link refId="26857"/>
			<link refId="26856"/>
			<link refId="26855"/>
			<link refId="26806"/>
			<link refId="72753"/>
			<link refId="72752"/>
			<link refId="26843"/>
			<link refId="26844"/>
			<link refId="26842"/>
			<link refId="72779"/>
			<flowCapacity type="absolute" value="0.0"/>
	</networkChangeEvent>
	<networkChangeEvent startTime="19:57:00">
			<link refId="56913"/>
			<link refId="56912"/>
			<link refId="70797"/>
			<link refId="70798"/>
			<link refId="143131"/>
			<link refId="143132"/>
			<link refId="23851"/>
			<link refId="56911"/>
			<link refId="56910"/>
			<link refId="23852"/>
			<link refId="56946"/>
			<link refId="56909"/>
			<link refId="56947"/>
			<link refId="143301"/>
			<link refId="56914"/>
			<link refId="143302"/>
			<flowCapacity type="absolute" value="0.0"/>
	</networkChangeEvent>
	<networkChangeEvent startTime="20:06:00">
			<link refId="143121"/>
			<link refId="143122"/>
			<link refId="82973"/>
			<link refId="82975"/>
			<link refId="82974"/>
			<link refId="82978"/>
			<link refId="82979"/>
			<link refId="82980"/>
			<link refId="82976"/>
			<link refId="82977"/>
			<flowCapacity type="absolute" value="0.0"/>
	</networkChangeEvent>
</networkChangeEvents>
