<?xml version="1.0" encoding="utf-8"?>
<networkChangeEvents xmlns="http://www.matsim.org/files/dtd" xmlns:xsi="http://www.w3.org/2001/XMLSchema-instance" xsi:schemaLocation="http://www.matsim.org/files/dtd http://www.matsim.org/files/dtd/networkChangeEvents.xsd">
	<networkChangeEvent startTime="10:20:00">
			<link refId="19319-19317-19315-19313-19311-19309-19307-19305-19303-19301-19299-19297-19295-19293-19291-19289-19287-19285-19283-19281-19279-19277-19275-19273-19271-19269-19267-19265-19263-19261-19259-19257-19255-19253-19251-19249-19247-19381-19379-19377-19375-19373-19371-19369-19367-19365-19363-19361-19359-19357-19355-19353-19351-19349-19347-19345-19343-19341-19339-19337-19335-19333-19331-19329-19327-19325"/>
			<link refId="32739-32737-32735-32733-32731-32729-32727-32725-32723-32721-32719-32717-32715-32713-32711-32709-32707-32705-32703-32701-32699-32697-32695-32693-32691-32689-32687-32685-32683-32681"/>
			<link refId="19324-19326-19328-19330-19332-19334-19336-19338-19340-19342-19344-19346-19348-19350-19352-19354-19356-19358-19360-19362-19364-19366-19368-19370-19372-19374-19376-19378-19380-19246-19248-19250-19252-19254-19256-19258-19260-19262-19264-19266-19268-19270-19272-19274-19276-19278-19280-19282-19284-19286-19288-19290-19292-19294-19296-19298-19300-19302-19304-19306-19308-19310-19312-19314-19316-19318"/>
			<link refId="57679-57681-57683-57685-57687-57689-57691-57693-57695-57697-57699-57701-57703-57705-57707-57709-57711-57713-57715-57717-57719-57721-57723-57725-57727-57729-57731-57733-57735-57737-57739-57741-57743-57745-57747-57749-57751-57753-57755-57757-57759-57761-57763-57765-57767-57769-57771-57773-57775-57777-57779-57781-57783-57785-57787-57789-57791-57793-57795-57797"/>
			<link refId="32680-32682-32684-32686-32688-32690-32692-32694-32696-32698-32700-32702-32704-32706-32708-32710-32712-32714-32716-32718-32720-32722-32724-32726-32728-32730-32732-32734-32736-32738"/>
			<link refId="57798-57796-57794-57792-57790-57788-57786-57784-57782-57780-57778-57776-57774-57772-57770-57768-57766-57764-57762-57760-57758-57756-57754-57752-57750-57748-57746-57744-57742-57740-57738-57736-57734-57732-57730-57728-57726-57724-57722-57720-57718-57716-57714-57712-57710-57708-57706-57704-57702-57700-57698-57696-57694-57692-57690-57688-57686-57684-57682-57680"/>
			<flowCapacity type="absolute" value="0.0"/>
	</networkChangeEvent>
	<networkChangeEvent startTime="10:45:00">
			<link refId="41058-41152"/>
			<link refId="62000"/>
			<link refId="40278-40276-40274-40272-40270-40268-40266-40264-40262-40260-40258-40256-40254-40252-40250-40248-40246-40244-40242-40240-40238-40236-40234-40232-40230-40228-40226-40224-40222-40220-40218-40216-40214-40212-40210-40208-40206-40204-40202-40200-40198-40196-40194-40192"/>
			<link refId="40191-40193-40195-40197-40199-40201-40203-40205-40207-40209-40211-40213-40215-40217-40219-40221-40223-40225-40227-40229-40231-40233-40235-40237-40239-40241-40243-40245-40247-40249-40251-40253-40255-40257-40259-40261-40263-40265-40267-40269-40271-40273-40275-40277"/>
			<link refId="62001"/>
			<link refId="41151-41057"/>
			<flowCapacity type="absolute" value="0.0"/>
	</networkChangeEvent>
	<networkChangeEvent startTime="11:00:00">
			<link refId="41170-41168"/>
			<link refId="14440-14442-14444-14446-14448-14450-14452-14454-14456-14458"/>
			<link refId="29607-29605"/>
			<link refId="14459-14457-14455-14453-14451-14449-14447-14445-14443-14441"/>
			<link refId="29514-29516-29518-29520-29522-29524-29526-29528-29530-29532-29534-29536-29538-29540-29542-29544-29546-29548-29550-29552-29554-29556-29558-29560-29562-29564-29566-29568-29570-29572-29574-29576-29578-29580-29582-29584-29586-29588-29590-29592-29594-29596-29598-29600-29602"/>
			<link refId="964-962-960-958-956-954-952-950-948-946-944-942-940-938-936-934-932-930-928-926-924-922-920-918-916-914-912-910-908-906-904-902-900-898-896-894-892"/>
			<link refId="891-893-895-897-899-901-903-905-907-909-911-913-915-917-919-921-923-925-927-929-931-933-935-937-939-941-943-945-947-949-951-953-955-957-959-961-963"/>
			<link refId="29603-29601-29599-29597-29595-29593-29591-29589-29587-29585-29583-29581-29579-29577-29575-29573-29571-29569-29567-29565-29563-29561-29559-29557-29555-29553-29551-29549-29547-29545-29543-29541-29539-29537-29535-29533-29531-29529-29527-29525-29523-29521-29519-29517-29515"/>
			<link refId="29604-29606"/>
			<link refId="4945-4947-4949-4951-4953-4955-4957-4959-4961-4963-4965-4967-4969-4971-4973-4975-4977-4979-4981-4983-4985-4987"/>
			<link refId="4988-4986-4984-4982-4980-4978-4976-4974-4972-4970-4968-4966-4964-4962-4960-4958-4956-4954-4952-4950-4948-4946"/>
			<link refId="4911-4913-4915-4917-4919-4921-4923-4925"/>
			<link refId="62002-62004-62006"/>
			<link refId="41163-41165"/>
			<link refId="41156"/>
			<link refId="41154"/>
			<link refId="41157-41159-41161"/>
			<link refId="4926-4924-4922-4920-4918-4916-4914-4912"/>
			<link refId="41162-41160-41158"/>
			<link refId="41155"/>
			<link refId="41153"/>
			<link refId="41166-41164"/>
			<link refId="41167-41169"/>
			<link refId="62007-62005-62003"/>
			<flowCapacity type="absolute" value="0.0"/>
	</networkChangeEvent>
	<networkChangeEvent startTime="11:15:00">
			<link refId="27033-27031-27029-27027-27025-27023-27021-27019-27017-27015-27013-27011-27009"/>
			<link refId="61999"/>
			<link refId="61956"/>
			<link refId="14426"/>
			<link refId="14439-14437-14435-14433-14431-14429"/>
			<link refId="26019-26021-26023-26025-26027-26029-26031-26033-26035-26037-26039-26041-26043-26045-26047-26049"/>
			<link refId="26018-26016-26014-26012-26010-26008-26006-26004-26002-26000-25998-25996-25994-25992-25990-25988-25986-25984-25982-25980-25978-25976-25974-25972-25970-25968-25966-25964-25962-25960"/>
			<link refId="25959-25961-25963-25965-25967-25969-25971-25973-25975-25977-25979-25981-25983-25985-25987-25989-25991-25993-25995-25997-25999-26001-26003-26005-26007-26009-26011-26013-26015-26017"/>
			<link refId="4944-4942-4940"/>
			<link refId="14427"/>
			<link refId="14428-14430-14432-14434-14436-14438"/>
			<link refId="27008-27010-27012-27014-27016-27018-27020-27022-27024-27026-27028-27030-27032"/>
			<link refId="4938-4936-4934-4932-4930-4928"/>
			<link refId="4939-4941-4943"/>
			<link refId="4927-4929-4931-4933-4935-4937"/>
			<link refId="41128"/>
			<link refId="61957"/>
			<link refId="41127"/>
			<link refId="26050-26048-26046-26044-26042-26040-26038-26036-26034-26032-26030-26028-26026-26024-26022-26020"/>
			<link refId="61998"/>
			<flowCapacity type="absolute" value="0.0"/>
	</networkChangeEvent>
</networkChangeEvents>
